* Circuit Extracted by Tanner Research's L-Edit Version 12.51 / Extract Version 12.51 ;
* TDB File:  C:\Documents and Settings\tobi\My Documents\~jAER-sourceForge\biasgen\ProgrammableBiasGenDesignKits\biasgenMotionChipV4\biasgenMDC.tdb
* Cell:  biasgen_complete	Version 1.01
* Extract Definition File:  ams_C35.ext
* Extract Date and Time:  07/26/2007 - 10:04

.include sim/mod/ams_C35.md

.SUBCKT PADBOND PIN1
.ENDS

M1 U151_0_0/in U151_0_0/nin 9 U150/Gnd MODN L=350n W=1.05u    $ (-863.95 166.45 -862.9 166.8)
M2 U151_0_0/nin U151_0_0/in 9 U150/Gnd MODN L=350n W=1.05u    $ (-861.65 166.45 -860.6 166.8)
M3 46 47 U17_0_0/dGnd U150/Gnd MODN L=350n W=1.05u    $ (-867.75 166.45 -866.7 166.8)
M4 47 46 U17_0_0/dGnd U150/Gnd MODN L=350n W=1.05u    $ (-870.05 166.45 -869 166.8)
M5 U17_0_0/dGnd U17_0_0/clock 9 U150/Gnd MODN L=350n W=1.05u    $ (-862.9 167.6 -861.85 167.95)
M6 U62/U0/U0/in U62/U0/U0/nin 11 U150/Gnd MODN L=350n W=1.05u    $ (-878.35 166.45 -877.3 166.8)
M7 U62/U0/U0/nin U62/U0/U0/in 11 U150/Gnd MODN L=350n W=1.05u    $ (-876.05 166.45 -875 166.8)
M8 52 53 U17_0_0/dGnd U150/Gnd MODN L=350n W=1.05u    $ (-882.15 166.45 -881.1 166.8)
M9 53 52 U17_0_0/dGnd U150/Gnd MODN L=350n W=1.05u    $ (-884.45 166.45 -883.4 166.8)
M10 U17_0_0/dGnd U17_0_0/clock 11 U150/Gnd MODN L=350n W=1.05u    $ (-877.3 167.6 -876.25 167.95)
M11 U62/U1/U0/in U62/U1/U0/nin 10 U150/Gnd MODN L=350n W=1.05u    $ (-892.75 166.45 -891.7 166.8)
M12 U62/U1/U0/nin U62/U1/U0/in 10 U150/Gnd MODN L=350n W=1.05u    $ (-890.45 166.45 -889.4 166.8)
M13 U17_0_0/dGnd U17_0_0/clock 10 U150/Gnd MODN L=350n W=1.05u    $ (-891.7 167.6 -890.65 167.95)
M14 13 55 U17_0_0/dGnd U150/Gnd MODN L=350n W=1.05u    $ (-898.85 166.45 -897.8 166.8)
M15 55 13 U17_0_0/dGnd U150/Gnd MODN L=350n W=1.05u    $ (-896.55 166.45 -895.5 166.8)
M16 U62/U2/U0/in U62/U2/U0/nin 12 U150/Gnd MODN L=350n W=1.05u    $ (-907.15 166.45 -906.1 166.8)
M17 U62/U2/U0/nin U62/U2/U0/in 12 U150/Gnd MODN L=350n W=1.05u    $ (-904.85 166.45 -903.8 166.8)
M18 60 61 U17_0_0/dGnd U150/Gnd MODN L=350n W=1.05u    $ (-910.95 166.45 -909.9 166.8)
M19 61 60 U17_0_0/dGnd U150/Gnd MODN L=350n W=1.05u    $ (-913.25 166.45 -912.2 166.8)
M20 U17_0_0/dGnd U17_0_0/clock 12 U150/Gnd MODN L=350n W=1.05u    $ (-906.1 167.6 -905.05 167.95)
M21 U62/U3/U0/in U62/U3/U0/nin 17 U150/Gnd MODN L=350n W=1.05u    $ (-921.55 166.45 -920.5 166.8)
M22 67 68 U17_0_0/dGnd U150/Gnd MODN L=350n W=1.05u    $ (-925.35 166.45 -924.3 166.8)
M23 68 67 U17_0_0/dGnd U150/Gnd MODN L=350n W=1.05u    $ (-927.65 166.45 -926.6 166.8)
M24 U17_0_0/dGnd U17_0_0/clock 17 U150/Gnd MODN L=350n W=1.05u    $ (-920.5 167.6 -919.45 167.95)
M25 U62/U3/U0/nin U62/U3/U0/in 17 U150/Gnd MODN L=350n W=1.05u    $ (-919.25 166.45 -918.2 166.8)
M26 U62/U6_0_0/U1/in U62/U6_0_0/U1/nin 14 U150/Gnd MODN L=350n W=1.05u    $ (-935.95 166.45 -934.9 166.8)
M27 U62/U6_0_0/U1/nin U62/U6_0_0/U1/in 14 U150/Gnd MODN L=350n W=1.05u    $ (-933.65 166.45 -932.6 166.8)
M28 72 73 U17_0_0/dGnd U150/Gnd MODN L=350n W=1.05u    $ (-939.75 166.45 -938.7 166.8)
M29 73 72 U17_0_0/dGnd U150/Gnd MODN L=350n W=1.05u    $ (-942.05 166.45 -941 166.8)
M30 U17_0_0/dGnd U17_0_0/clock 14 U150/Gnd MODN L=350n W=1.05u    $ (-934.9 167.6 -933.85 167.95)
M31 U62/U6_1_0/U1/in U62/U6_1_0/U1/nin 19 U150/Gnd MODN L=350n W=1.05u    $ (-950.35 166.45 -949.3 166.8)
M32 U62/U6_1_0/U1/nin U62/U6_1_0/U1/in 19 U150/Gnd MODN L=350n W=1.05u    $ (-948.05 166.45 -947 166.8)
M33 80 81 U17_0_0/dGnd U150/Gnd MODN L=350n W=1.05u    $ (-954.15 166.45 -953.1 166.8)
M34 81 80 U17_0_0/dGnd U150/Gnd MODN L=350n W=1.05u    $ (-956.45 166.45 -955.4 166.8)
M35 U17_0_0/dGnd U17_0_0/clock 19 U150/Gnd MODN L=350n W=1.05u    $ (-949.3 167.6 -948.25 167.95)
M36 U62/U6_2_0/U1/in U62/U6_2_0/U1/nin 18 U150/Gnd MODN L=350n W=1.05u    $ (-964.75 166.45 -963.7 166.8)
M37 U62/U6_2_0/U1/nin U62/U6_2_0/U1/in 18 U150/Gnd MODN L=350n W=1.05u    $ (-962.45 166.45 -961.4 166.8)
M38 U17_0_0/dGnd U17_0_0/clock 18 U150/Gnd MODN L=350n W=1.05u    $ (-963.7 167.6 -962.65 167.95)
M39 21 83 U17_0_0/dGnd U150/Gnd MODN L=350n W=1.05u    $ (-970.85 166.45 -969.8 166.8)
M40 83 21 U17_0_0/dGnd U150/Gnd MODN L=350n W=1.05u    $ (-968.55 166.45 -967.5 166.8)
M41 U62/U6_3_0/U1/in U62/U6_3_0/U1/nin 20 U150/Gnd MODN L=350n W=1.05u    $ (-979.15 166.45 -978.1 166.8)
M42 U62/U6_3_0/U1/nin U62/U6_3_0/U1/in 20 U150/Gnd MODN L=350n W=1.05u    $ (-976.85 166.45 -975.8 166.8)
M43 88 89 U17_0_0/dGnd U150/Gnd MODN L=350n W=1.05u    $ (-982.95 166.45 -981.9 166.8)
M44 89 88 U17_0_0/dGnd U150/Gnd MODN L=350n W=1.05u    $ (-985.25 166.45 -984.2 166.8)
M45 U17_0_0/dGnd U17_0_0/clock 20 U150/Gnd MODN L=350n W=1.05u    $ (-978.1 167.6 -977.05 167.95)
M46 U62/U6_4_0/U1/in U62/U6_4_0/U1/nin 25 U150/Gnd MODN L=350n W=1.05u    $ (-993.55 166.45 -992.5 166.8)
M47 95 96 U17_0_0/dGnd U150/Gnd MODN L=350n W=1.05u    $ (-997.35 166.45 -996.3 166.8)
M48 96 95 U17_0_0/dGnd U150/Gnd MODN L=350n W=1.05u    $ (-999.65 166.45 -998.6 166.8)
M49 U17_0_0/dGnd U17_0_0/clock 25 U150/Gnd MODN L=350n W=1.05u    $ (-992.5 167.6 -991.45 167.95)
M50 U62/U6_4_0/U1/nin U62/U6_4_0/U1/in 25 U150/Gnd MODN L=350n W=1.05u    $ (-991.25 166.45 -990.2 166.8)
M51 U62/U6_5_0/U1/in U62/U6_5_0/U1/nin 22 U150/Gnd MODN L=350n W=1.05u    $ (-1007.95 166.45 -1006.9 166.8)
M52 U62/U6_5_0/U1/nin U62/U6_5_0/U1/in 22 U150/Gnd MODN L=350n W=1.05u    $ (-1005.65 166.45 -1004.6 166.8)
M53 100 101 U17_0_0/dGnd U150/Gnd MODN L=350n W=1.05u    $ (-1011.75 166.45 -1010.7 166.8)
M54 101 100 U17_0_0/dGnd U150/Gnd MODN L=350n W=1.05u    $ (-1014.05 166.45 -1013 166.8)
M55 U17_0_0/dGnd U17_0_0/clock 22 U150/Gnd MODN L=350n W=1.05u    $ (-1006.9 167.6 -1005.85 167.95)
M56 U62/U6_6_0/U1/in U62/U6_6_0/U1/nin 26 U150/Gnd MODN L=350n W=1.05u    $ (-1022.35 166.45 -1021.3 166.8)
M57 U62/U6_6_0/U1/nin U62/U6_6_0/U1/in 26 U150/Gnd MODN L=350n W=1.05u    $ (-1020.05 166.45 -1019 166.8)
M58 108 109 U17_0_0/dGnd U150/Gnd MODN L=350n W=1.05u    $ (-1026.15 166.45 -1025.1 166.8)
M59 109 108 U17_0_0/dGnd U150/Gnd MODN L=350n W=1.05u    $ (-1028.45 166.45 -1027.4 166.8)
M60 U17_0_0/dGnd U17_0_0/clock 26 U150/Gnd MODN L=350n W=1.05u    $ (-1021.3 167.6 -1020.25 167.95)
M61 U62/U0/U0/OR U62/U0/U0/nq U17_0_0/dVdd U17_0_0/dVdd MODP L=350n W=1.05u    $ (-870 151.5 -868.95 151.85)
M62 U62/U0/U0/nq U151_0_0/in U17_0_0/dVdd U17_0_0/dVdd MODP L=350n W=1.05u    $ (-866.7 149.35 -866.35 150.4)
M63 U62/U0/U0/q U151_0_0/nin U17_0_0/dVdd U17_0_0/dVdd MODP L=350n W=1.05u    $ (-866.7 151.65 -866.35 152.7)
M64 U17_0_0/dVdd U151_0_0/nin U151_0_0/in U17_0_0/dVdd MODP L=350n W=1.05u    $ (-863.95 157.2 -862.9 157.55)
M65 U151_0_0/nin U151_0_0/in U17_0_0/dVdd U17_0_0/dVdd MODP L=350n W=1.05u    $ (-861.65 157.2 -860.6 157.55)
M66 48 46 47 U17_0_0/dVdd MODP L=350n W=1.05u    $ (-870.05 157.2 -869 157.55)
M67 46 47 48 U17_0_0/dVdd MODP L=350n W=1.05u    $ (-867.75 157.2 -866.7 157.55)
M68 U151_0_0/nin U17_0_0/clock 46 U17_0_0/dVdd MODP L=2.2u W=800n    $ (-865.25 162.2 -863.05 163)
M69 U151_0_0/in U17_0_0/clock 47 U17_0_0/dVdd MODP L=2.2u W=800n    $ (-865.25 160.8 -863.05 161.6)
M70 U17_0_0/dVdd U17_0_0/clock 48 U17_0_0/dVdd MODP L=350n W=1.05u    $ (-869 156.05 -867.95 156.4)
M71 U17_0_0/dGnd U151_0_0/in U62/U0/U0/nq U150/Gnd MODN L=350n W=1.05u    $ (-862.25 149.35 -861.9 150.4)
M72 U17_0_0/dGnd U151_0_0/nin U62/U0/U0/q U150/Gnd MODN L=350n W=1.05u    $ (-862.25 151.65 -861.9 152.7)
M73 U62/U0/U0/OR U62/U1/U0/nq U17_0_0/dVdd U17_0_0/dVdd MODP L=350n W=1.05u    $ (-884.4 151.5 -883.35 151.85)
M74 U62/U1/U0/nq U62/U0/U0/in U17_0_0/dVdd U17_0_0/dVdd MODP L=350n W=1.05u    $ (-881.1 149.35 -880.75 150.4)
M75 U62/U1/U0/q U62/U0/U0/nin U17_0_0/dVdd U17_0_0/dVdd MODP L=350n W=1.05u    $ (-881.1 151.65 -880.75 152.7)
M76 U17_0_0/dVdd U62/U0/U0/nin U62/U0/U0/in U17_0_0/dVdd MODP L=350n W=1.05u    $ (-878.35 157.2 -877.3 157.55)
M77 U62/U0/U0/nin U62/U0/U0/in U17_0_0/dVdd U17_0_0/dVdd MODP L=350n W=1.05u    $ (-876.05 157.2 -875 157.55)
M78 U17_0_0/dVdd U17_0_0/clock 54 U17_0_0/dVdd MODP L=350n W=1.05u    $ (-883.4 156.05 -882.35 156.4)
M79 U62/U0/U0/nin U17_0_0/clock 52 U17_0_0/dVdd MODP L=2.2u W=800n    $ (-879.65 162.2 -877.45 163)
M80 U62/U0/U0/in U17_0_0/clock 53 U17_0_0/dVdd MODP L=2.2u W=800n    $ (-879.65 160.8 -877.45 161.6)
M81 54 52 53 U17_0_0/dVdd MODP L=350n W=1.05u    $ (-884.45 157.2 -883.4 157.55)
M82 52 53 54 U17_0_0/dVdd MODP L=350n W=1.05u    $ (-882.15 157.2 -881.1 157.55)
M83 U17_0_0/dVdd U62/U1/U0/nin U62/U1/U0/in U17_0_0/dVdd MODP L=350n W=1.05u    $ (-892.75 157.2 -891.7 157.55)
M84 U62/U1/U0/nin U62/U1/U0/in U17_0_0/dVdd U17_0_0/dVdd MODP L=350n W=1.05u    $ (-890.45 157.2 -889.4 157.55)
M85 U62/U1/U0/nin U17_0_0/clock 55 U17_0_0/dVdd MODP L=2.2u W=800n    $ (-894.05 162.2 -891.85 163)
M86 U62/U1/U0/in U17_0_0/clock 13 U17_0_0/dVdd MODP L=2.2u W=800n    $ (-894.05 160.8 -891.85 161.6)
M87 U62/U0/U0/nin U17_0_0/clock 46 U150/Gnd MODN L=2.2u W=800n    $ (-871.55 162.2 -869.35 163)
M88 U62/U0/U0/in U17_0_0/clock 47 U150/Gnd MODN L=2.2u W=800n    $ (-871.55 160.8 -869.35 161.6)
M89 U17_0_0/dGnd U62/U0/U0/in U62/U1/U0/nq U150/Gnd MODN L=350n W=1.05u    $ (-876.65 149.35 -876.3 150.4)
M90 U17_0_0/dGnd U62/U0/U0/nin U62/U1/U0/q U150/Gnd MODN L=350n W=1.05u    $ (-876.65 151.65 -876.3 152.7)
M91 52 U17_0_0/clock U62/U1/U0/nin U150/Gnd MODN L=2.2u W=800n    $ (-885.95 162.2 -883.75 163)
M92 53 U17_0_0/clock U62/U1/U0/in U150/Gnd MODN L=2.2u W=800n    $ (-885.95 160.8 -883.75 161.6)
M93 U17_0_0/dGnd U62/U1/U0/in U62/U2/U0/nq U150/Gnd MODN L=350n W=1.05u    $ (-891.05 149.35 -890.7 150.4)
M94 U17_0_0/dGnd U62/U1/U0/nin U62/U2/U0/q U150/Gnd MODN L=350n W=1.05u    $ (-891.05 151.65 -890.7 152.7)
M95 U62/U0/U0/OR U62/U2/U0/nq U17_0_0/dVdd U17_0_0/dVdd MODP L=350n W=1.05u    $ (-898.8 151.5 -897.75 151.85)
M96 U17_0_0/dVdd U17_0_0/clock 65 U17_0_0/dVdd MODP L=350n W=1.05u    $ (-897.8 156.05 -896.75 156.4)
M97 65 55 13 U17_0_0/dVdd MODP L=350n W=1.05u    $ (-898.85 157.2 -897.8 157.55)
M98 U17_0_0/dVdd U62/U1/U0/in U62/U2/U0/nq U17_0_0/dVdd MODP L=350n W=1.05u    $ (-895.5 149.35 -895.15 150.4)
M99 U17_0_0/dVdd U62/U1/U0/nin U62/U2/U0/q U17_0_0/dVdd MODP L=350n W=1.05u    $ (-895.5 151.65 -895.15 152.7)
M100 55 13 65 U17_0_0/dVdd MODP L=350n W=1.05u    $ (-896.55 157.2 -895.5 157.55)
M101 U62/U0/U0/OR U62/U3/U0/nq U17_0_0/dVdd U17_0_0/dVdd MODP L=350n W=1.05u    $ (-913.2 151.5 -912.15 151.85)
M102 U62/U3/U0/nq U62/U2/U0/in U17_0_0/dVdd U17_0_0/dVdd MODP L=350n W=1.05u    $ (-909.9 149.35 -909.55 150.4)
M103 U62/U3/U0/q U62/U2/U0/nin U17_0_0/dVdd U17_0_0/dVdd MODP L=350n W=1.05u    $ (-909.9 151.65 -909.55 152.7)
M104 U17_0_0/dVdd U62/U2/U0/nin U62/U2/U0/in U17_0_0/dVdd MODP L=350n W=1.05u    $ (-907.15 157.2 -906.1 157.55)
M105 U62/U2/U0/nin U62/U2/U0/in U17_0_0/dVdd U17_0_0/dVdd MODP L=350n W=1.05u    $ (-904.85 157.2 -903.8 157.55)
M106 U17_0_0/dVdd U17_0_0/clock 62 U17_0_0/dVdd MODP L=350n W=1.05u    $ (-912.2 156.05 -911.15 156.4)
M107 U62/U2/U0/nin U17_0_0/clock 60 U17_0_0/dVdd MODP L=2.2u W=800n    $ (-908.45 162.2 -906.25 163)
M108 U62/U2/U0/in U17_0_0/clock 61 U17_0_0/dVdd MODP L=2.2u W=800n    $ (-908.45 160.8 -906.25 161.6)
M109 62 60 61 U17_0_0/dVdd MODP L=350n W=1.05u    $ (-913.25 157.2 -912.2 157.55)
M110 60 61 62 U17_0_0/dVdd MODP L=350n W=1.05u    $ (-910.95 157.2 -909.9 157.55)
M111 55 U17_0_0/clock U62/U2/U0/nin U150/Gnd MODN L=2.2u W=800n    $ (-900.35 162.2 -898.15 163)
M112 13 U17_0_0/clock U62/U2/U0/in U150/Gnd MODN L=2.2u W=800n    $ (-900.35 160.8 -898.15 161.6)
M113 U17_0_0/dGnd U62/U2/U0/in U62/U3/U0/nq U150/Gnd MODN L=350n W=1.05u    $ (-905.45 149.35 -905.1 150.4)
M114 U17_0_0/dGnd U62/U2/U0/nin U62/U3/U0/q U150/Gnd MODN L=350n W=1.05u    $ (-905.45 151.65 -905.1 152.7)
M115 60 U17_0_0/clock U62/U3/U0/nin U150/Gnd MODN L=2.2u W=800n    $ (-914.75 162.2 -912.55 163)
M116 61 U17_0_0/clock U62/U3/U0/in U150/Gnd MODN L=2.2u W=800n    $ (-914.75 160.8 -912.55 161.6)
M117 U62/U0/U0/OR U62/U6_0_0/U1/nq U17_0_0/dVdd U17_0_0/dVdd MODP L=350n W=1.05u    $ (-927.6 151.5 -926.55 151.85)
M118 U62/U6_0_0/U1/nq U62/U3/U0/in U17_0_0/dVdd U17_0_0/dVdd MODP L=350n W=1.05u    $ (-924.3 149.35 -923.95 150.4)
M119 U62/U6_0_0/U1/q U62/U3/U0/nin U17_0_0/dVdd U17_0_0/dVdd MODP L=350n W=1.05u    $ (-924.3 151.65 -923.95 152.7)
M120 U17_0_0/dVdd U62/U3/U0/nin U62/U3/U0/in U17_0_0/dVdd MODP L=350n W=1.05u    $ (-921.55 157.2 -920.5 157.55)
M121 U17_0_0/dVdd U17_0_0/clock 76 U17_0_0/dVdd MODP L=350n W=1.05u    $ (-926.6 156.05 -925.55 156.4)
M122 U62/U3/U0/nin U17_0_0/clock 67 U17_0_0/dVdd MODP L=2.2u W=800n    $ (-922.85 162.2 -920.65 163)
M123 U62/U3/U0/in U17_0_0/clock 68 U17_0_0/dVdd MODP L=2.2u W=800n    $ (-922.85 160.8 -920.65 161.6)
M124 76 67 68 U17_0_0/dVdd MODP L=350n W=1.05u    $ (-927.65 157.2 -926.6 157.55)
M125 67 68 76 U17_0_0/dVdd MODP L=350n W=1.05u    $ (-925.35 157.2 -924.3 157.55)
M126 U62/U3/U0/nin U62/U3/U0/in U17_0_0/dVdd U17_0_0/dVdd MODP L=350n W=1.05u    $ (-919.25 157.2 -918.2 157.55)
M127 U62/U0/U0/OR U62/U6_1_0/U1/nq U17_0_0/dVdd U17_0_0/dVdd MODP L=350n W=1.05u    $ (-942 151.5 -940.95 151.85)
M128 U62/U6_1_0/U1/nq U62/U6_0_0/U1/in U17_0_0/dVdd U17_0_0/dVdd MODP L=350n W=1.05u    $ (-938.7 149.35 -938.35 150.4)
M129 U62/U6_1_0/U1/q U62/U6_0_0/U1/nin U17_0_0/dVdd U17_0_0/dVdd MODP L=350n W=1.05u    $ (-938.7 151.65 -938.35 152.7)
M130 U17_0_0/dVdd U62/U6_0_0/U1/nin U62/U6_0_0/U1/in U17_0_0/dVdd MODP L=350n W=1.05u    $ (-935.95 157.2 -934.9 157.55)
M131 U62/U6_0_0/U1/nin U62/U6_0_0/U1/in U17_0_0/dVdd U17_0_0/dVdd MODP L=350n W=1.05u    $ (-933.65 157.2 -932.6 157.55)
M132 75 72 73 U17_0_0/dVdd MODP L=350n W=1.05u    $ (-942.05 157.2 -941 157.55)
M133 72 73 75 U17_0_0/dVdd MODP L=350n W=1.05u    $ (-939.75 157.2 -938.7 157.55)
M134 U62/U6_0_0/U1/nin U17_0_0/clock 72 U17_0_0/dVdd MODP L=2.2u W=800n    $ (-937.25 162.2 -935.05 163)
M135 U62/U6_0_0/U1/in U17_0_0/clock 73 U17_0_0/dVdd MODP L=2.2u W=800n    $ (-937.25 160.8 -935.05 161.6)
M136 U17_0_0/dVdd U17_0_0/clock 75 U17_0_0/dVdd MODP L=350n W=1.05u    $ (-941 156.05 -939.95 156.4)
M137 U17_0_0/dGnd U62/U3/U0/in U62/U6_0_0/U1/nq U150/Gnd MODN L=350n W=1.05u    $ (-919.85 149.35 -919.5 150.4)
M138 U17_0_0/dGnd U62/U3/U0/nin U62/U6_0_0/U1/q U150/Gnd MODN L=350n W=1.05u    $ (-919.85 151.65 -919.5 152.7)
M139 67 U17_0_0/clock U62/U6_0_0/U1/nin U150/Gnd MODN L=2.2u W=800n    $ (-929.15 162.2 -926.95 163)
M140 68 U17_0_0/clock U62/U6_0_0/U1/in U150/Gnd MODN L=2.2u W=800n    $ (-929.15 160.8 -926.95 161.6)
M141 U17_0_0/dGnd U62/U6_0_0/U1/in U62/U6_1_0/U1/nq U150/Gnd MODN L=350n W=1.05u    $ (-934.25 149.35 -933.9 150.4)
M142 U17_0_0/dGnd U62/U6_0_0/U1/nin U62/U6_1_0/U1/q U150/Gnd MODN L=350n W=1.05u    $ (-934.25 151.65 -933.9 152.7)
M143 U62/U0/U0/OR U62/U6_2_0/U1/nq U17_0_0/dVdd U17_0_0/dVdd MODP L=350n W=1.05u    $ (-956.4 151.5 -955.35 151.85)
M144 U62/U6_2_0/U1/nq U62/U6_1_0/U1/in U17_0_0/dVdd U17_0_0/dVdd MODP L=350n W=1.05u    $ (-953.1 149.35 -952.75 150.4)
M145 U62/U6_2_0/U1/q U62/U6_1_0/U1/nin U17_0_0/dVdd U17_0_0/dVdd MODP L=350n W=1.05u    $ (-953.1 151.65 -952.75 152.7)
M146 U17_0_0/dVdd U62/U6_1_0/U1/nin U62/U6_1_0/U1/in U17_0_0/dVdd MODP L=350n W=1.05u    $ (-950.35 157.2 -949.3 157.55)
M147 U62/U6_1_0/U1/nin U62/U6_1_0/U1/in U17_0_0/dVdd U17_0_0/dVdd MODP L=350n W=1.05u    $ (-948.05 157.2 -947 157.55)
M148 U17_0_0/dVdd U17_0_0/clock 82 U17_0_0/dVdd MODP L=350n W=1.05u    $ (-955.4 156.05 -954.35 156.4)
M149 U62/U6_1_0/U1/nin U17_0_0/clock 80 U17_0_0/dVdd MODP L=2.2u W=800n    $ (-951.65 162.2 -949.45 163)
M150 U62/U6_1_0/U1/in U17_0_0/clock 81 U17_0_0/dVdd MODP L=2.2u W=800n    $ (-951.65 160.8 -949.45 161.6)
M151 82 80 81 U17_0_0/dVdd MODP L=350n W=1.05u    $ (-956.45 157.2 -955.4 157.55)
M152 80 81 82 U17_0_0/dVdd MODP L=350n W=1.05u    $ (-954.15 157.2 -953.1 157.55)
M153 U17_0_0/dVdd U62/U6_2_0/U1/nin U62/U6_2_0/U1/in U17_0_0/dVdd MODP L=350n W=1.05u    $ (-964.75 157.2 -963.7 157.55)
M154 U62/U6_2_0/U1/nin U62/U6_2_0/U1/in U17_0_0/dVdd U17_0_0/dVdd MODP L=350n W=1.05u    $ (-962.45 157.2 -961.4 157.55)
M155 U62/U6_2_0/U1/nin U17_0_0/clock 83 U17_0_0/dVdd MODP L=2.2u W=800n    $ (-966.05 162.2 -963.85 163)
M156 U62/U6_2_0/U1/in U17_0_0/clock 21 U17_0_0/dVdd MODP L=2.2u W=800n    $ (-966.05 160.8 -963.85 161.6)
M157 U62/U6_1_0/U1/nin U17_0_0/clock 72 U150/Gnd MODN L=2.2u W=800n    $ (-943.55 162.2 -941.35 163)
M158 U62/U6_1_0/U1/in U17_0_0/clock 73 U150/Gnd MODN L=2.2u W=800n    $ (-943.55 160.8 -941.35 161.6)
M159 U17_0_0/dGnd U62/U6_1_0/U1/in U62/U6_2_0/U1/nq U150/Gnd MODN L=350n W=1.05u    $ (-948.65 149.35 -948.3 150.4)
M160 U17_0_0/dGnd U62/U6_1_0/U1/nin U62/U6_2_0/U1/q U150/Gnd MODN L=350n W=1.05u    $ (-948.65 151.65 -948.3 152.7)
M161 80 U17_0_0/clock U62/U6_2_0/U1/nin U150/Gnd MODN L=2.2u W=800n    $ (-957.95 162.2 -955.75 163)
M162 81 U17_0_0/clock U62/U6_2_0/U1/in U150/Gnd MODN L=2.2u W=800n    $ (-957.95 160.8 -955.75 161.6)
M163 U17_0_0/dGnd U62/U6_2_0/U1/in U62/U6_3_0/U1/nq U150/Gnd MODN L=350n W=1.05u    $ (-963.05 149.35 -962.7 150.4)
M164 U17_0_0/dGnd U62/U6_2_0/U1/nin U62/U6_3_0/U1/q U150/Gnd MODN L=350n W=1.05u    $ (-963.05 151.65 -962.7 152.7)
M165 U62/U0/U0/OR U62/U6_3_0/U1/nq U17_0_0/dVdd U17_0_0/dVdd MODP L=350n W=1.05u    $ (-970.8 151.5 -969.75 151.85)
M166 U17_0_0/dVdd U17_0_0/clock 93 U17_0_0/dVdd MODP L=350n W=1.05u    $ (-969.8 156.05 -968.75 156.4)
M167 93 83 21 U17_0_0/dVdd MODP L=350n W=1.05u    $ (-970.85 157.2 -969.8 157.55)
M168 U17_0_0/dVdd U62/U6_2_0/U1/in U62/U6_3_0/U1/nq U17_0_0/dVdd MODP L=350n W=1.05u    $ (-967.5 149.35 -967.15 150.4)
M169 U17_0_0/dVdd U62/U6_2_0/U1/nin U62/U6_3_0/U1/q U17_0_0/dVdd MODP L=350n W=1.05u    $ (-967.5 151.65 -967.15 152.7)
M170 83 21 93 U17_0_0/dVdd MODP L=350n W=1.05u    $ (-968.55 157.2 -967.5 157.55)
M171 U62/U0/U0/OR U62/U6_4_0/U1/nq U17_0_0/dVdd U17_0_0/dVdd MODP L=350n W=1.05u    $ (-985.2 151.5 -984.15 151.85)
M172 U62/U6_4_0/U1/nq U62/U6_3_0/U1/in U17_0_0/dVdd U17_0_0/dVdd MODP L=350n W=1.05u    $ (-981.9 149.35 -981.55 150.4)
M173 U62/U6_4_0/U1/q U62/U6_3_0/U1/nin U17_0_0/dVdd U17_0_0/dVdd MODP L=350n W=1.05u    $ (-981.9 151.65 -981.55 152.7)
M174 U17_0_0/dVdd U62/U6_3_0/U1/nin U62/U6_3_0/U1/in U17_0_0/dVdd MODP L=350n W=1.05u    $ (-979.15 157.2 -978.1 157.55)
M175 U62/U6_3_0/U1/nin U62/U6_3_0/U1/in U17_0_0/dVdd U17_0_0/dVdd MODP L=350n W=1.05u    $ (-976.85 157.2 -975.8 157.55)
M176 U17_0_0/dVdd U17_0_0/clock 90 U17_0_0/dVdd MODP L=350n W=1.05u    $ (-984.2 156.05 -983.15 156.4)
M177 U62/U6_3_0/U1/nin U17_0_0/clock 88 U17_0_0/dVdd MODP L=2.2u W=800n    $ (-980.45 162.2 -978.25 163)
M178 U62/U6_3_0/U1/in U17_0_0/clock 89 U17_0_0/dVdd MODP L=2.2u W=800n    $ (-980.45 160.8 -978.25 161.6)
M179 90 88 89 U17_0_0/dVdd MODP L=350n W=1.05u    $ (-985.25 157.2 -984.2 157.55)
M180 88 89 90 U17_0_0/dVdd MODP L=350n W=1.05u    $ (-982.95 157.2 -981.9 157.55)
M181 83 U17_0_0/clock U62/U6_3_0/U1/nin U150/Gnd MODN L=2.2u W=800n    $ (-972.35 162.2 -970.15 163)
M182 21 U17_0_0/clock U62/U6_3_0/U1/in U150/Gnd MODN L=2.2u W=800n    $ (-972.35 160.8 -970.15 161.6)
M183 U17_0_0/dGnd U62/U6_3_0/U1/in U62/U6_4_0/U1/nq U150/Gnd MODN L=350n W=1.05u    $ (-977.45 149.35 -977.1 150.4)
M184 U17_0_0/dGnd U62/U6_3_0/U1/nin U62/U6_4_0/U1/q U150/Gnd MODN L=350n W=1.05u    $ (-977.45 151.65 -977.1 152.7)
M185 88 U17_0_0/clock U62/U6_4_0/U1/nin U150/Gnd MODN L=2.2u W=800n    $ (-986.75 162.2 -984.55 163)
M186 89 U17_0_0/clock U62/U6_4_0/U1/in U150/Gnd MODN L=2.2u W=800n    $ (-986.75 160.8 -984.55 161.6)
M187 U62/U0/U0/OR U62/U6_5_0/U1/nq U17_0_0/dVdd U17_0_0/dVdd MODP L=350n W=1.05u    $ (-999.6 151.5 -998.55 151.85)
M188 U62/U6_5_0/U1/nq U62/U6_4_0/U1/in U17_0_0/dVdd U17_0_0/dVdd MODP L=350n W=1.05u    $ (-996.3 149.35 -995.95 150.4)
M189 U62/U6_5_0/U1/q U62/U6_4_0/U1/nin U17_0_0/dVdd U17_0_0/dVdd MODP L=350n W=1.05u    $ (-996.3 151.65 -995.95 152.7)
M190 U17_0_0/dVdd U62/U6_4_0/U1/nin U62/U6_4_0/U1/in U17_0_0/dVdd MODP L=350n W=1.05u    $ (-993.55 157.2 -992.5 157.55)
M191 U17_0_0/dVdd U17_0_0/clock 103 U17_0_0/dVdd MODP L=350n W=1.05u    $ (-998.6 156.05 -997.55 156.4)
M192 U62/U6_4_0/U1/nin U17_0_0/clock 95 U17_0_0/dVdd MODP L=2.2u W=800n    $ (-994.85 162.2 -992.65 163)
M193 U62/U6_4_0/U1/in U17_0_0/clock 96 U17_0_0/dVdd MODP L=2.2u W=800n    $ (-994.85 160.8 -992.65 161.6)
M194 103 95 96 U17_0_0/dVdd MODP L=350n W=1.05u    $ (-999.65 157.2 -998.6 157.55)
M195 95 96 103 U17_0_0/dVdd MODP L=350n W=1.05u    $ (-997.35 157.2 -996.3 157.55)
M196 U62/U6_4_0/U1/nin U62/U6_4_0/U1/in U17_0_0/dVdd U17_0_0/dVdd MODP L=350n W=1.05u    $ (-991.25 157.2 -990.2 157.55)
M197 U62/U0/U0/OR U62/U6_6_0/U1/nq U17_0_0/dVdd U17_0_0/dVdd MODP L=350n W=1.05u    $ (-1014 151.5 -1012.95 151.85)
M198 U62/U6_6_0/U1/nq U62/U6_5_0/U1/in U17_0_0/dVdd U17_0_0/dVdd MODP L=350n W=1.05u    $ (-1010.7 149.35 -1010.35 150.4)
M199 U62/U6_6_0/U1/q U62/U6_5_0/U1/nin U17_0_0/dVdd U17_0_0/dVdd MODP L=350n W=1.05u    $ (-1010.7 151.65 -1010.35 152.7)
M200 U17_0_0/dVdd U62/U6_5_0/U1/nin U62/U6_5_0/U1/in U17_0_0/dVdd MODP L=350n W=1.05u    $ (-1007.95 157.2 -1006.9 157.55)
M201 U62/U6_5_0/U1/nin U62/U6_5_0/U1/in U17_0_0/dVdd U17_0_0/dVdd MODP L=350n W=1.05u    $ (-1005.65 157.2 -1004.6 157.55)
M202 102 100 101 U17_0_0/dVdd MODP L=350n W=1.05u    $ (-1014.05 157.2 -1013 157.55)
M203 100 101 102 U17_0_0/dVdd MODP L=350n W=1.05u    $ (-1011.75 157.2 -1010.7 157.55)
M204 U62/U6_5_0/U1/nin U17_0_0/clock 100 U17_0_0/dVdd MODP L=2.2u W=800n    $ (-1009.25 162.2 -1007.05 163)
M205 U62/U6_5_0/U1/in U17_0_0/clock 101 U17_0_0/dVdd MODP L=2.2u W=800n    $ (-1009.25 160.8 -1007.05 161.6)
M206 U17_0_0/dVdd U17_0_0/clock 102 U17_0_0/dVdd MODP L=350n W=1.05u    $ (-1013 156.05 -1011.95 156.4)
M207 U17_0_0/dGnd U62/U6_4_0/U1/in U62/U6_5_0/U1/nq U150/Gnd MODN L=350n W=1.05u    $ (-991.85 149.35 -991.5 150.4)
M208 U17_0_0/dGnd U62/U6_4_0/U1/nin U62/U6_5_0/U1/q U150/Gnd MODN L=350n W=1.05u    $ (-991.85 151.65 -991.5 152.7)
M209 95 U17_0_0/clock U62/U6_5_0/U1/nin U150/Gnd MODN L=2.2u W=800n    $ (-1001.15 162.2 -998.95 163)
M210 96 U17_0_0/clock U62/U6_5_0/U1/in U150/Gnd MODN L=2.2u W=800n    $ (-1001.15 160.8 -998.95 161.6)
M211 U17_0_0/dGnd U62/U6_5_0/U1/in U62/U6_6_0/U1/nq U150/Gnd MODN L=350n W=1.05u    $ (-1006.25 149.35 -1005.9 150.4)
M212 U17_0_0/dGnd U62/U6_5_0/U1/nin U62/U6_6_0/U1/q U150/Gnd MODN L=350n W=1.05u    $ (-1006.25 151.65 -1005.9 152.7)
M213 U62/U0/U0/OR U62/U6_7_0/U1/nq U17_0_0/dVdd U17_0_0/dVdd MODP L=350n W=1.05u    $ (-1028.4 151.5 -1027.35 151.85)
M214 U62/U6_7_0/U1/nq U62/U6_6_0/U1/in U17_0_0/dVdd U17_0_0/dVdd MODP L=350n W=1.05u    $ (-1025.1 149.35 -1024.75 150.4)
M215 U62/U6_7_0/U1/q U62/U6_6_0/U1/nin U17_0_0/dVdd U17_0_0/dVdd MODP L=350n W=1.05u    $ (-1025.1 151.65 -1024.75 152.7)
M216 U17_0_0/dVdd U62/U6_6_0/U1/nin U62/U6_6_0/U1/in U17_0_0/dVdd MODP L=350n W=1.05u    $ (-1022.35 157.2 -1021.3 157.55)
M217 U62/U6_6_0/U1/nin U62/U6_6_0/U1/in U17_0_0/dVdd U17_0_0/dVdd MODP L=350n W=1.05u    $ (-1020.05 157.2 -1019 157.55)
M218 U17_0_0/dVdd U17_0_0/clock 112 U17_0_0/dVdd MODP L=350n W=1.05u    $ (-1027.4 156.05 -1026.35 156.4)
M219 U62/U6_6_0/U1/nin U17_0_0/clock 108 U17_0_0/dVdd MODP L=2.2u W=800n    $ (-1023.65 162.2 -1021.45 163)
M220 U62/U6_6_0/U1/in U17_0_0/clock 109 U17_0_0/dVdd MODP L=2.2u W=800n    $ (-1023.65 160.8 -1021.45 161.6)
M221 112 108 109 U17_0_0/dVdd MODP L=350n W=1.05u    $ (-1028.45 157.2 -1027.4 157.55)
M222 108 109 112 U17_0_0/dVdd MODP L=350n W=1.05u    $ (-1026.15 157.2 -1025.1 157.55)
M223 U62/U6_6_0/U1/nin U17_0_0/clock 100 U150/Gnd MODN L=2.2u W=800n    $ (-1015.55 162.2 -1013.35 163)
M224 U62/U6_6_0/U1/in U17_0_0/clock 101 U150/Gnd MODN L=2.2u W=800n    $ (-1015.55 160.8 -1013.35 161.6)
M225 U17_0_0/dGnd U62/U6_6_0/U1/in U62/U6_7_0/U1/nq U150/Gnd MODN L=350n W=1.05u    $ (-1020.65 149.35 -1020.3 150.4)
M226 U17_0_0/dGnd U62/U6_6_0/U1/nin U62/U6_7_0/U1/q U150/Gnd MODN L=350n W=1.05u    $ (-1020.65 151.65 -1020.3 152.7)
M227 108 U17_0_0/clock nin U150/Gnd MODN L=2.2u W=800n    $ (-1029.95 162.2 -1027.75 163)
M228 109 U17_0_0/clock in U150/Gnd MODN L=2.2u W=800n    $ (-1029.95 160.8 -1027.75 161.6)
M229 BiasBufferPBias BiasBufferNBias U150/Gnd U150/Gnd MODN L=800n W=8u    $ (-1057.25 150.4 -1056.45 158.4)
M230 BiasBufferNBias BiasBufferNBias U150/Gnd U150/Gnd MODN L=800n W=8u    $ (-1057.25 160.2 -1056.45 168.2)
M231 122 U17_0_0/!latch U62/U0/U1/q U17_0_0/dVdd MODP L=400n W=400n    $ (-863.25 134.4 -862.85 134.8)
M232 U62/U0/U1/q U62/U0/U1/!q U17_0_0/dVdd U17_0_0/dVdd MODP L=400n W=800n    $ (-865.45 133.4 -864.65 133.8)
M233 U17_0_0/dVdd 122 U62/U0/U1/!q U17_0_0/dVdd MODP L=400n W=800n    $ (-868.05 133.4 -867.25 133.8)
M234 122 U17_0_0/latch U62/U0/U0/q U17_0_0/dVdd MODP L=400n W=400n    $ (-870.85 133.4 -870.45 133.8)
M235 122 U17_0_0/latch U62/U0/U1/q U150/Gnd MODN L=400n W=400n    $ (-862.25 137.8 -861.85 138.2)
M236 U62/U0/U1/q U62/U0/U1/!q U17_0_0/dGnd U150/Gnd MODN L=400n W=800n    $ (-865.45 139 -864.65 139.4)
M237 U62/U0/U1/!q 122 U17_0_0/dGnd U150/Gnd MODN L=400n W=800n    $ (-868.05 139 -867.25 139.4)
M238 U62/U0/U0/q U17_0_0/!latch 122 U150/Gnd MODN L=400n W=400n    $ (-870.85 139 -870.45 139.4)
M239 125 U17_0_0/!latch U62/U1/U1/q U17_0_0/dVdd MODP L=400n W=400n    $ (-877.65 134.4 -877.25 134.8)
M240 U62/U1/U1/q U62/U1/U1/!q U17_0_0/dVdd U17_0_0/dVdd MODP L=400n W=800n    $ (-879.85 133.4 -879.05 133.8)
M241 U17_0_0/dVdd 125 U62/U1/U1/!q U17_0_0/dVdd MODP L=400n W=800n    $ (-882.45 133.4 -881.65 133.8)
M242 125 U17_0_0/latch U62/U1/U0/q U17_0_0/dVdd MODP L=400n W=400n    $ (-885.25 133.4 -884.85 133.8)
M243 129 U17_0_0/!latch U62/U2/U1/q U17_0_0/dVdd MODP L=400n W=400n    $ (-892.05 134.4 -891.65 134.8)
M244 U62/U2/U1/q U62/U7/BiasGenNBias U17_0_0/dVdd U17_0_0/dVdd MODP L=400n W=800n    $ (-894.25 133.4 -893.45 133.8)
M245 125 U17_0_0/latch U62/U1/U1/q U150/Gnd MODN L=400n W=400n    $ (-876.65 137.8 -876.25 138.2)
M246 U62/U1/U1/q U62/U1/U1/!q U17_0_0/dGnd U150/Gnd MODN L=400n W=800n    $ (-879.85 139 -879.05 139.4)
M247 U62/U1/U1/!q 125 U17_0_0/dGnd U150/Gnd MODN L=400n W=800n    $ (-882.45 139 -881.65 139.4)
M248 U62/U1/U0/q U17_0_0/!latch 125 U150/Gnd MODN L=400n W=400n    $ (-885.25 139 -884.85 139.4)
M249 129 U17_0_0/latch U62/U2/U1/q U150/Gnd MODN L=400n W=400n    $ (-891.05 137.8 -890.65 138.2)
M250 U62/U2/U1/q U62/U7/BiasGenNBias U17_0_0/dGnd U150/Gnd MODN L=400n W=800n    $ (-894.25 139 -893.45 139.4)
M251 U17_0_0/dVdd 129 U62/U7/BiasGenNBias U17_0_0/dVdd MODP L=400n W=800n    $ (-896.85 133.4 -896.05 133.8)
M252 129 U17_0_0/latch U62/U2/U0/q U17_0_0/dVdd MODP L=400n W=400n    $ (-899.65 133.4 -899.25 133.8)
M253 130 U17_0_0/!latch U62/U3/U1/q U17_0_0/dVdd MODP L=400n W=400n    $ (-906.45 134.4 -906.05 134.8)
M254 U62/U3/U1/q U62/U3/U1/!q U17_0_0/dVdd U17_0_0/dVdd MODP L=400n W=800n    $ (-908.65 133.4 -907.85 133.8)
M255 U17_0_0/dVdd 130 U62/U3/U1/!q U17_0_0/dVdd MODP L=400n W=800n    $ (-911.25 133.4 -910.45 133.8)
M256 130 U17_0_0/latch U62/U3/U0/q U17_0_0/dVdd MODP L=400n W=400n    $ (-914.05 133.4 -913.65 133.8)
M257 U62/U7/BiasGenNBias 129 U17_0_0/dGnd U150/Gnd MODN L=400n W=800n    $ (-896.85 139 -896.05 139.4)
M258 U62/U2/U0/q U17_0_0/!latch 129 U150/Gnd MODN L=400n W=400n    $ (-899.65 139 -899.25 139.4)
M259 130 U17_0_0/latch U62/U3/U1/q U150/Gnd MODN L=400n W=400n    $ (-905.45 137.8 -905.05 138.2)
M260 U62/U3/U1/q U62/U3/U1/!q U17_0_0/dGnd U150/Gnd MODN L=400n W=800n    $ (-908.65 139 -907.85 139.4)
M261 U62/U3/U1/!q 130 U17_0_0/dGnd U150/Gnd MODN L=400n W=800n    $ (-911.25 139 -910.45 139.4)
M262 U62/U3/U0/q U17_0_0/!latch 130 U150/Gnd MODN L=400n W=400n    $ (-914.05 139 -913.65 139.4)
M263 137 U17_0_0/!latch U62/U6_0_0/U0/q U17_0_0/dVdd MODP L=400n W=400n    $ (-920.85 134.4 -920.45 134.8)
M264 U62/U6_0_0/U0/q U62/U6_0_0/U0/!q U17_0_0/dVdd U17_0_0/dVdd MODP L=400n W=800n    $ (-923.05 133.4 -922.25 133.8)
M265 U17_0_0/dVdd 137 U62/U6_0_0/U0/!q U17_0_0/dVdd MODP L=400n W=800n    $ (-925.65 133.4 -924.85 133.8)
M266 137 U17_0_0/latch U62/U6_0_0/U1/q U17_0_0/dVdd MODP L=400n W=400n    $ (-928.45 133.4 -928.05 133.8)
M267 146 BiasGenNBias 148 U150/Vdd MODP L=2.4u W=4.8u    $ (-922.25 118.4 -917.45 120.8)
M268 138 U17_0_0/!latch U62/U6_1_0/U0/q U17_0_0/dVdd MODP L=400n W=400n    $ (-935.25 134.4 -934.85 134.8)
M269 U62/U6_1_0/U0/q U62/U6_1_0/U0/!q U17_0_0/dVdd U17_0_0/dVdd MODP L=400n W=800n    $ (-937.45 133.4 -936.65 133.8)
M270 U17_0_0/dVdd 138 U62/U6_1_0/U0/!q U17_0_0/dVdd MODP L=400n W=800n    $ (-940.05 133.4 -939.25 133.8)
M271 138 U17_0_0/latch U62/U6_1_0/U1/q U17_0_0/dVdd MODP L=400n W=400n    $ (-942.85 133.4 -942.45 133.8)
M272 186 BiasGenNBias 139 U150/Vdd MODP L=2.4u W=4.8u    $ (-936.65 118.4 -931.85 120.8)
M273 U62/U6_0_0/U0/q U62/U6_0_0/U0/!q U17_0_0/dGnd U150/Gnd MODN L=400n W=800n    $ (-923.05 139 -922.25 139.4)
M274 U62/U6_0_0/U0/!q 137 U17_0_0/dGnd U150/Gnd MODN L=400n W=800n    $ (-925.65 139 -924.85 139.4)
M275 U62/U6_0_0/U1/q U17_0_0/!latch 137 U150/Gnd MODN L=400n W=400n    $ (-928.45 139 -928.05 139.4)
M276 137 U17_0_0/latch U62/U6_0_0/U0/q U150/Gnd MODN L=400n W=400n    $ (-919.85 137.8 -919.45 138.2)
M277 148 U62/U6_0_0/U0/!q U150/Gnd U150/Gnd MODN L=400n W=1.2u    $ (-927.85 120.6 -927.45 121.8)
M278 BiasBufferNBias U62/U6_0_0/U0/q 148 U150/Gnd MODN L=400n W=1.2u    $ (-926.25 120.6 -925.85 121.8)
M279 138 U17_0_0/latch U62/U6_1_0/U0/q U150/Gnd MODN L=400n W=400n    $ (-934.25 137.8 -933.85 138.2)
M280 U62/U6_1_0/U0/q U62/U6_1_0/U0/!q U17_0_0/dGnd U150/Gnd MODN L=400n W=800n    $ (-937.45 139 -936.65 139.4)
M281 U62/U6_1_0/U0/!q 138 U17_0_0/dGnd U150/Gnd MODN L=400n W=800n    $ (-940.05 139 -939.25 139.4)
M282 U62/U6_1_0/U1/q U17_0_0/!latch 138 U150/Gnd MODN L=400n W=400n    $ (-942.85 139 -942.45 139.4)
M283 139 U62/U6_1_0/U0/!q U150/Gnd U150/Gnd MODN L=400n W=1.2u    $ (-942.25 120.6 -941.85 121.8)