* Wed Feb 26 17:01:27 MET 2003
* Fraunhofer IIS, Erlangen, Germany
* TSpice Model Library for Analog Pads in ams 0.35 um CMOS (C35)

.include ..\mod\ams_C35.md
.global gnda, vdda

.SUBCKT AGNDALLP A
*.PININFO A:I
RR0 A gnda 0.01 
XDD0 gnda vdda NWD AREA=2.55111e-09 PJ=0.000463868
XDI37 A vdda PD AREA=2.34768e-09 PJ=0.000447942
.ENDS

.SUBCKT APRIO1K5P PAD Z
*.PININFO PAD:B Z:B
XDD1 gnda vdda NWD AREA=1.054e-11 PJ=1.3e-05
XDD0 gnda vdda NWD AREA=1.54366e-09 PJ=0.0003786
XDI45 gnda PAD NWD AREA=365p PJ=104u
*RR0 PAD Z $[RDIFFP3] W=4e-06 L=5.31e-05 $SUB=vdda
XRR0 PAD vdda Z RDIFFP3 W=4e-06 L=5.31e-05
XDI44 gnda PAD ND AREA=2.22e-10 PJ=222u
XDI24 gnda Z ND AREA=6.5p PJ=9.4u
XDI48 Z vdda PD AREA=6.5p PJ=9.4u
XDI23 Z vdda PD AREA=6.8e-12 PJ=1.14e-05
XDI40 PAD vdda PD AREA=121.196e-11 PJ=261.8u
.ENDS

.SUBCKT APRIO200P PAD Z
*.PININFO PAD:B Z:B
XDD1 gnda vdda NWD AREA=1.054e-11 PJ=1.3e-05
XDD0 gnda vdda NWD AREA=1.54366e-09 PJ=0.0003786
XDI45 gnda PAD NWD AREA=365p PJ=104u
*RR0 PAD Z $[RDIFFP3] W=4e-06 L=7.1e-06 $SUB=vdda
XRR0 PAD vdda Z RDIFFP3 W=4e-06 L=7.1e-06
XDI44 gnda PAD ND AREA=2.22e-10 PJ=222u
XDI24 gnda Z ND AREA=6.5e-12 PJ=9.42843e-06
XDI48 Z vdda PD AREA=6.5e-12 PJ=9.42843e-06
XDI23 Z vdda PD AREA=1.908e-10 PJ=0.0001034
XDI40 PAD vdda PD AREA=121.196e-11 PJ=261.8u
.ENDS

.SUBCKT APRIO500P PAD Z
*.PININFO PAD:B Z:B
XDD1 gnda vdda NWD AREA=1.54366e-09 PJ=0.0003786
XDD0 gnda vdda NWD AREA=1.054e-11 PJ=1.3e-05
XDI45 gnda PAD NWD AREA=365p PJ=104u
*RR0 PAD Z $[RDIFFP3] W=4e-06 L=1.77e-05 $SUB=vdda
XRR0 PAD vdda Z RDIFFP3 W=4e-06 L=1.77e-05
XDI44 gnda PAD ND AREA=2.22e-10 PJ=222u
XDI24 gnda Z ND AREA=6.5p PJ=9.4u
XDI23 Z vdda PD AREA=1.484e-10 PJ=8.22e-05
XDI40 PAD vdda PD AREA=121.196e-11 PJ=261.8u
XDI47 Z vdda PD AREA=6.5p PJ=9.4u
.ENDS

.SUBCKT APRIO50P PAD Z
*.PININFO PAD:B Z:B
XDD1 gnda vdda NWD AREA=1.054e-11 PJ=1.3e-05
XDD0 gnda vdda NWD AREA=1.54366e-09 PJ=0.0003786
XDI45 gnda PAD NWD AREA=365p PJ=104u
*RR0 PAD Z $[RDIFFP3] W=4e-06 L=1.8e-06 $SUB=vdda
XRR0 PAD vdda Z RDIFFP3 W=4e-06 L=1.8e-06
XDI44 gnda PAD ND AREA=2.22e-10 PJ=222u
XDI24 gnda Z ND AREA=6.5e-12 PJ=9.42843e-06
XDI48 Z vdda PD AREA=6.5e-12 PJ=9.42843e-06
XDI23 Z vdda PD AREA=2.12e-10 PJ=0.000114
XDI40 PAD vdda PD AREA=121.196e-11 PJ=261.8u
.ENDS

.SUBCKT APRIOP PAD Z
*.PININFO PAD:B Z:B
RR0 PAD Z 0.001 
XDD1 gnda vdda NWD AREA=1.054e-11 PJ=1.3e-05
XDD0 gnda vdda NWD AREA=1.54366e-09 PJ=0.0003786
XDI45 gnda PAD NWD AREA=365p PJ=104u
XDI44 gnda PAD ND AREA=2.22e-10 PJ=222u
XDI48 gnda Z ND AREA=6.5e-12 PJ=9.428u
XDI40 PAD vdda PD AREA=14.3116e-10 PJ=371.4u
XDI47 Z vdda PD AREA=6.5e-12 PJ=9.42843e-06
.ENDS

.SUBCKT APRIOWP PAD Z
*.PININFO PAD:B Z:B
XDI40 PAD vdda PD AREA=2.34768e-09 PJ=0.000447942
XDI44 gnda PAD ND AREA=6.66e-10 PJ=0.000662913
XDD0 gnda vdda NWD AREA=2.55111e-09 PJ=0.000463868
XDI45 gnda PAD NWD AREA=1.09608e-09 PJ=0.000310971
RR0 PAD Z 0.001 
.ENDS

.SUBCKT AVDDALLP A
*.PININFO A:I
RR0 vdda A 0.001 
RR1 vdda A 0.001 
XDI25 gnda A NWD AREA=1.09608e-09 PJ=0.000310971
XDI24 gnda A ND AREA=6.66e-10 PJ=0.000662913
.ENDS
